 6
Mode       1
O    1.39094379  -1.16448331   0.00000000   0.02179   0.07230   0.00000
O    1.39701038   1.15531446   0.00000000  -0.02149   0.07242  -0.00000
O   -1.37791355   0.00280593   0.00000000   0.00003   0.02326  -0.00000
H   -1.96271045  -0.75606847   0.00000000   0.03714   0.06412   0.00000
H   -1.95831671   0.76504628   0.00000000  -0.03711   0.06433  -0.00000
C    1.37480025  -0.00453494   0.00000000   0.00017   0.08311   0.00000
 6
Mode       2
O    1.39094379  -1.16448331   0.00000000   0.00000   0.00000   0.01591
O    1.39701038   1.15531446   0.00000000  -0.00000   0.00000   0.01003
O   -1.37791355   0.00280593   0.00000000  -0.00000  -0.00000   0.11499
H   -1.96271045  -0.75606847   0.00000000   0.00000  -0.00000   0.52936
H   -1.95831671   0.76504628   0.00000000  -0.00000  -0.00000   0.51469
C    1.37480025  -0.00453494   0.00000000  -0.00000   0.00000   0.01582
 6
Mode       3
O    1.39094379  -1.16448331   0.00000000  -0.04830  -0.00196   0.00000
O    1.39701038   1.15531446   0.00000000   0.04990  -0.00221   0.00000
O   -1.37791355   0.00280593   0.00000000   0.00107   0.09838   0.00000
H   -1.96271045  -0.75606847   0.00000000  -0.02464   0.41412   0.00000
H   -1.95831671   0.76504628   0.00000000   0.03333   0.41396   0.00000
C    1.37480025  -0.00453494   0.00000000   0.00093  -0.00138   0.00000
 6
Mode       4
O    1.39094379  -1.16448331   0.00000000  -0.00000  -0.00000   0.07521
O    1.39701038   1.15531446   0.00000000  -0.00000  -0.00000   0.07479
O   -1.37791355   0.00280593   0.00000000  -0.00000  -0.00000  -0.01899
H   -1.96271045  -0.75606847   0.00000000  -0.00000  -0.00000  -0.12658
H   -1.95831671   0.76504628   0.00000000  -0.00000  -0.00000  -0.12767
C    1.37480025  -0.00453494   0.00000000  -0.00000  -0.00000   0.08579
 6
Mode       5
O    1.39094379  -1.16448331   0.00000000   0.06480  -0.00013  -0.00000
O    1.39701038   1.15531446   0.00000000   0.06330  -0.00013   0.00000
O   -1.37791355   0.00280593   0.00000000   0.06387  -0.00134  -0.00000
H   -1.96271045  -0.75606847   0.00000000   0.25304  -0.00426  -0.00000
H   -1.95831671   0.76504628   0.00000000   0.25583  -0.00429   0.00000
C    1.37480025  -0.00453494   0.00000000   0.07395  -0.00017   0.00000
 6
Mode       6
O    1.39094379  -1.16448331   0.00000000  -0.00000   0.00000  -0.08741
O    1.39701038   1.15531446   0.00000000  -0.00000   0.00000   0.08863
O   -1.37791355   0.00280593   0.00000000  -0.00000   0.00000   0.00383
H   -1.96271045  -0.75606847   0.00000000  -0.00000   0.00000  -0.19858
H   -1.95831671   0.76504628   0.00000000  -0.00000   0.00000   0.23130
C    1.37480025  -0.00453494   0.00000000  -0.00000   0.00000   0.00073
 6
Mode       7
O    1.39094379  -1.16448331   0.00000000  -0.05237   0.01485  -0.00000
O    1.39701038   1.15531446   0.00000000   0.05274   0.01458   0.00000
O   -1.37791355   0.00280593   0.00000000   0.00007  -0.02601   0.00000
H   -1.96271045  -0.75606847   0.00000000   0.79289  -0.71527  -0.00000
H   -1.95831671   0.76504628   0.00000000  -0.79587  -0.71069   0.00000
C    1.37480025  -0.00453494   0.00000000   0.00022   0.01879  -0.00000
 6
Mode       8
O    1.39094379  -1.16448331   0.00000000  -0.00000   0.00000   0.00263
O    1.39701038   1.15531446   0.00000000   0.00000   0.00000   0.00275
O   -1.37791355   0.00280593   0.00000000   0.00000   0.00000  -0.04777
H   -1.96271045  -0.75606847   0.00000000   0.00000   0.00000   1.30860
H   -1.95831671   0.76504628   0.00000000  -0.00000   0.00000   1.30734
C    1.37480025  -0.00453494   0.00000000   0.00000   0.00000   0.00019
 6
Mode       9
O    1.39094379  -1.16448331   0.00000000  -0.04035   0.00011  -0.00000
O    1.39701038   1.15531446   0.00000000  -0.04033   0.00011   0.00000
O   -1.37791355   0.00280593   0.00000000   0.10003  -0.00028   0.00000
H   -1.96271045  -0.75606847   0.00000000   0.40139  -0.00348  -0.00000
H   -1.95831671   0.76504628   0.00000000   0.40143   0.00125   0.00000
C    1.37480025  -0.00453494   0.00000000  -0.04882   0.00013   0.00000
 6
Mode      10
O    1.39094379  -1.16448331   0.00000000  -0.00000   0.00000  -0.01356
O    1.39701038   1.15531446   0.00000000   0.00000   0.00000   0.01355
O   -1.37791355   0.00280593   0.00000000   0.00000  -0.00000   0.00001
H   -1.96271045  -0.75606847   0.00000000  -0.00000   0.00000   1.39700
H   -1.95831671   0.76504628   0.00000000   0.00000   0.00000  -1.39853
C    1.37480025  -0.00453494   0.00000000  -0.00000   0.00000  -0.00000
 6
Mode      11
O    1.39094379  -1.16448331   0.00000000  -0.04789   0.01830   0.00000
O    1.39701038   1.15531446   0.00000000   0.04799   0.01805  -0.00000
O   -1.37791355   0.00280593   0.00000000  -0.00018  -0.06177  -0.00000
H   -1.96271045  -0.75606847   0.00000000  -0.82356   0.38901  -0.00000
H   -1.95831671   0.76504628   0.00000000   0.82577   0.38424   0.00000
C    1.37480025  -0.00453494   0.00000000   0.00006   0.01982  -0.00000
 6
Mode      12
O    1.39094379  -1.16448331   0.00000000  -0.04699  -0.00230   0.00000
O    1.39701038   1.15531446   0.00000000  -0.04698   0.00254  -0.00000
O   -1.37791355   0.00280593   0.00000000   0.00136  -0.00000  -0.00000
H   -1.96271045  -0.75606847   0.00000000  -0.00247   0.00677   0.00000
H   -1.95831671   0.76504628   0.00000000  -0.00253  -0.00677  -0.00000
C    1.37480025  -0.00453494   0.00000000   0.14263  -0.00037   0.00000
 6
Mode      13
O    1.39094379  -1.16448331   0.00000000  -0.00000  -0.00000   0.04626
O    1.39701038   1.15531446   0.00000000  -0.00000  -0.00000   0.04626
O   -1.37791355   0.00280593   0.00000000  -0.00000   0.00000   0.00128
H   -1.96271045  -0.75606847   0.00000000  -0.00000   0.00000  -0.01662
H   -1.95831671   0.76504628   0.00000000   0.00000  -0.00000  -0.01664
C    1.37480025  -0.00453494   0.00000000   0.00000   0.00000  -0.14354
 6
Mode      14
O    1.39094379  -1.16448331   0.00000000   0.00104  -0.08908  -0.00000
O    1.39701038   1.15531446   0.00000000   0.00151   0.08907   0.00000
O   -1.37791355   0.00280593   0.00000000  -0.00022   0.00000  -0.00000
H   -1.96271045  -0.75606847   0.00000000   0.00580  -0.00562  -0.00000
H   -1.95831671   0.76504628   0.00000000   0.00583   0.00559   0.00000
C    1.37480025  -0.00453494   0.00000000  -0.00387   0.00001  -0.00000
 6
Mode      15
O    1.39094379  -1.16448331   0.00000000  -0.00024   0.00051   0.00000
O    1.39701038   1.15531446   0.00000000  -0.00024  -0.00051  -0.00000
O   -1.37791355   0.00280593   0.00000000  -0.03454   0.00010  -0.00000
H   -1.96271045  -0.75606847   0.00000000   1.08084  -0.82543  -0.00000
H   -1.95831671   0.76504628   0.00000000   1.08559   0.81918   0.00000
C    1.37480025  -0.00453494   0.00000000   0.00116  -0.00000   0.00000
 6
Mode      16
O    1.39094379  -1.16448331   0.00000000   0.00038  -0.04640  -0.00000
O    1.39701038   1.15531446   0.00000000  -0.00062  -0.04640  -0.00000
O   -1.37791355   0.00280593   0.00000000  -0.00000  -0.00062   0.00000
H   -1.96271045  -0.75606847   0.00000000  -0.01104   0.00788  -0.00000
H   -1.95831671   0.76504628   0.00000000   0.01110   0.00783  -0.00000
C    1.37480025  -0.00453494   0.00000000   0.00037   0.14338   0.00000
 6
Mode      17
O    1.39094379  -1.16448331   0.00000000   0.00003  -0.00006   0.00000
O    1.39701038   1.15531446   0.00000000   0.00003   0.00005   0.00000
O   -1.37791355   0.00280593   0.00000000  -0.02449   0.00007   0.00000
H   -1.96271045  -0.75606847   0.00000000   0.77830   1.14819   0.00000
H   -1.95831671   0.76504628   0.00000000   0.77181  -1.15287  -0.00000
C    1.37480025  -0.00453494   0.00000000  -0.00013   0.00000   0.00000
 6
Mode      18
O    1.39094379  -1.16448331   0.00000000   0.00000  -0.00004  -0.00000
O    1.39701038   1.15531446   0.00000000  -0.00000  -0.00004   0.00000
O   -1.37791355   0.00280593   0.00000000   0.00010   0.03416   0.00000
H   -1.96271045  -0.75606847   0.00000000  -0.83176  -1.07778   0.00000
H   -1.95831671   0.76504628   0.00000000   0.82538  -1.08234   0.00000
C    1.37480025  -0.00453494   0.00000000   0.00000   0.00015   0.00000
